/*--------------------------------*- C++ -*----------------------------------*\
  =========                 |
  \\      /  F ield         | OpenFOAM: The Open Source CFD Toolbox
   \\    /   O peration     | Website:  https://openfoam.org
    \\  /    A nd           | Version:  7
     \\/     M anipulation  |
\*---------------------------------------------------------------------------*/
FoamFile
{
    version     2.0;
    format      ascii;
    class       volScalarField;
    location    "0";
    object      epsilon;
}
// * * * * * * * * * * * * * * * * * * * * * * * * * * * * * * * * * * * * * //

/*--------------------------------*- C++ -*----------------------------------*\
    e : turbulent dissipation
           Cmu * k^2                     Cmu^0.75 * k^1.5
    e = ---------------     or      e = ------------------
         nu * (mut/mu)                          l
        
        Cmu = 0.09
        k        : turbulent kinetic energy
                k = 3/2 * (U * I)^2
                    U : inlet velocity
                    I : turbulent intensity
                        1.0% (Low) ... 5.0% (Med) ... 10.0% (High)
        nu       : kinematic viscosity
        mut / mu : viscosity ratio
                1 (Low) ... 10 (Med) ... 100 (High)
        l        : turbulent length scale

    Wall Functions - High RE
        epsilonWallFunction
    Resolved BL - Low RE
        epsilonWallFunction
        zeroGradient
        fixedValue (0 or small number)
\*---------------------------------------------------------------------------*/

dimensions      [0 2 -3 0 0 0 0];

internalField   uniform 0.0495;

boundaryField
{
    //- Set patchGroups for constraint patches
    #includeEtc "caseDicts/setConstraintTypes"

    inlet
    {
        type            fixedValue;
        value           $internalField;
    }

    outlet
    {
        type            inletOutlet;
        inletValue      $internalField;
        value           $internalField;
    }

    wall
    {
        type            epsilonWallFunction;
        value           $internalField;
    }
}


// ************************************************************************* //
