/*--------------------------------*- C++ -*----------------------------------*\
  =========                 |
  \\      /  F ield         | OpenFOAM: The Open Source CFD Toolbox
   \\    /   O peration     | Website:  https://openfoam.org
    \\  /    A nd           | Version:  7
     \\/     M anipulation  |
\*---------------------------------------------------------------------------*/
FoamFile
{
    version     2.0;
    format      ascii;
    class       volScalarField;
    object      omega;
}
// * * * * * * * * * * * * * * * * * * * * * * * * * * * * * * * * * * * * * //

/*--------------------------------*- C++ -*----------------------------------*\
            rho         mut
    omega = --- * k * ( --- )^-1
            mu          mu

        rho / mu = 1 / nu
        k = 3/2 * (U * I)^2  : turbulent kinetic energy
            U : inlet velocity
            I : turbulent intensity
                1.0% (Low) ... 5.0% (Med) ... 10.0% (High)
        mut / mu : viscosity ratio
                1 (Low) ... 10 (Med) ... 100 (High)

        Wall functions - High RE
            omegaWallFunction (omega_wall = 10 * (6 * nu) / (beta * y^2)
                              (beta = 0.075)
        Resolved BL - Low RE
            omegaWallFunctio
            fixedValue (large number)
\*---------------------------------------------------------------------------*/

#include        "include/initialConditions"

dimensions      [0 0 -1 0 0 0 0];

internalField   uniform $turbulentOmega;

boundaryField
{
    //- Set patchGroups for constraint patches
    #includeEtc "caseDicts/setConstraintTypes"

    #include "include/fixedInlet"

    outlet
    {
        type            inletOutlet;
        inletValue      $internalField;
        value           $internalField;
    }

    lowerWall
    {
        type            omegaWallFunction;
        value           $internalField;
    }

    motorBikeGroup
    {
        type            omegaWallFunction;
        value           $internalField;
    }

    #include "include/frontBackUpperPatches"
}


// ************************************************************************* //
