/*--------------------------------*- C++ -*----------------------------------*\
| =========                 |                                                 |
| \\      /  F ield         | OpenFOAM: The Open Source CFD Toolbox           |
|  \\    /   O peration     | Version:  v1912                                 |
|   \\  /    A nd           | Website:  www.openfoam.com                      |
|    \\/     M anipulation  |                                                 |
\*---------------------------------------------------------------------------*/
FoamFile
{
    version     2.0;
    format      ascii;
    class       dictionary;
    location    "system";
    object      fvSchemes;
}
// * * * * * * * * * * * * * * * * * * * * * * * * * * * * * * * * * * * * * //

ddtSchemes
{
    default     //  steadyState;        // sets time derivatives to zero
                    Euler;              // transient, 1st order implicit, bounded
                //  backward;           // transient, 2nd order implicit, potentially unbounded
                //  CrankNicolson 0.9;  // transient, 2nd order implicit, bounded, off-centering coeff
                                        // psi = 1 : pure CrankNicolson, psi = 0 : Euler
                /// localEuler;         // local time-step 1st order implicit/explicit, steady-state
                /// CoEuler;            // Courant# limited 1st order implicit/explicit, steady-state
                /// SLTS;               // Stabilised local time-step 1st order implicit/explicit, steady-state
                /// bounded;            // Bounded form of the selected ddt scheme
}

gradSchemes
{
    default         Gauss linear;
}

divSchemes
{
    default         none;
    div(phi,U)      Gauss limitedLinearV 1;
}

laplacianSchemes
{
    default         Gauss linear corrected;
}

interpolationSchemes
{
    default         linear;
}

snGradSchemes
{
    default         corrected;
}


// ************************************************************************* //
