/*--------------------------------*- C++ -*----------------------------------*\
| =========                 |                                                 |
| \\      /  F ield         | OpenFOAM: The Open Source CFD Toolbox           |
|  \\    /   O peration     | Version:  v1912                                 |
|   \\  /    A nd           | Website:  www.openfoam.com                      |
|    \\/     M anipulation  |                                                 |
\*---------------------------------------------------------------------------*/
FoamFile
{
    version     2.0;
    format      ascii;
    class       dictionary;
    location    "system";
    object      fvSolution;
}

/* * * * * * * * * * * * * * * * * * * * * * * * * * * * * * * * * * * * * * * \
// Solver                    | Sym | Asym| Remarks                            //
//----------------------------------------------------------------------------//
// PCG                       |  O  |  X  | Preconditioner                     //
// PBiCG                     |  X  |  O  | Preconditioner                     //
// PBiCGStab                 |  O  |  O  | Preconditioner                     //
// GAMG                      |  O  |  O  | Smoother                           //
// smoothSolver              |  O  |  O  | Smoother                           //
//============================================================================//
// Preconditioner            | Sym | Asym| Remarks                            //
//----------------------------------------------------------------------------//
// DIC                       |  O  |  X  |                                    //
// FDIC                      |  O  |  X  |                                    //
// DILU                      |  X  |  O  |                                    //
// GAMG                      |  O  |  O  |                                    //
// diagonal                  |  O  |  O  |                                    //
// none                      |  O  |  O  |                                    //
//============================================================================//
// Smoother                  | Sym | Asym| Remarks                            //
//----------------------------------------------------------------------------//
// DIC                       |  O  |  X  |                                    //
// DICGaussSeidel            |  O  |  X  |                                    //
// FDIC                      |  O  |  X  |                                    //
// DILU                      |  X  |  O  |                                    //
// DILUGaussSeidel           |  X  |  O  |                                    //
// GaussSeidel               |  O  |  O  |                                    //
// nonBlockingGaussSeidel    |  O  |  O  |                                    //
// symGaussSeidel            |  O  |  O  |                                    //
//* * * * * * * * * * * * * * * * * * * * * * * * * * * * * * * * * * * * * * */
/*---------------------------------------------------------------------------*\
| GAMG Optional Controls                                                      |
|// Agglomeration                                                             |
|   cacheAgglomeration          true;                                         |
|   nCellsInCoarsestLevel       10;                                           |
|   directSolveCoarsest         false;                                        |
|   agglomeration               <GAMGAgglomeration>;  ???                     |
|   processorAgglomerator       <GAMGAgglomeration>;  ???                     |
|   mergeLevels                 1;                                            |
|// Solver                                                                    |
|   nPreSweeps                  0;                                            |
|   preSweepsLevelMultiplier    1;                                            |
|   maxPreSweeps                4;                                            |
|   nPostSweeps                 2;                                            |
|   postSweepsLevelMultiplier   1;                                            | 
|   maxPostSweeps               4;                                            |
|   nFinestSweeps               2;                                            |
|   interpolateCorrection       false;                                        |
|   scaleCorrection             yes;     // YES : symmetric, NO : asymmetic   |
\*---------------------------------------------------------------------------*/

solvers
{
    p
    {
        solver          PCG;
        preconditioner  DIC;
        tolerance       1e-06;
        relTol          0.05;
    }

    pFinal
    {
        $p;
        relTol          0;
    }

    U
    {
        solver          smoothSolver;
        smoother        symGaussSeidel;
        tolerance       1e-05;
        relTol          0;
    }
}

PISO
{
    nCorrectors     2;
    nNonOrthogonalCorrectors 2;
}


// ************************************************************************* //
