/*--------------------------------*- C++ -*----------------------------------*\
| =========                 |                                                 |
| \\      /  F ield         | OpenFOAM: The Open Source CFD Toolbox           |
|  \\    /   O peration     | Version:  v1912                                 |
|   \\  /    A nd           | Website:  www.openfoam.com                      |
|    \\/     M anipulation  |                                                 |
\*---------------------------------------------------------------------------*/
FoamFile
{
    version     2.0;
    format      ascii;
    class       dictionary;
    location    "constant";
    object      transportProperties;
}
// * * * * * * * * * * * * * * * * * * * * * * * * * * * * * * * * * * * * * //

transportModel 	Newtonian;
		// BirdCarreau;	
		// CrossPowerLaw;
		// powerLaw;
		// HerschelBulkley;
		// Casson;

nu              2e-05;

BirdCarreauCoeffs
{
    nu0     [ 0 2 -1 0 0 0 0 ] 1e-03;
    nuInf   [ 0 2 -1 0 0 0 0 ] 1e-05;
    k	    [ 0 0  1 0 0 0 0 ] 1;
    n	    [ 0 0  0 0 0 0 0 ] 0.5;
}

CrossPowerLawCoeffs
{
    nu0     [ 0 2 -1 0 0 0 0 ] 1e-03;
    nuInf   [ 0 2 -1 0 0 0 0 ] 1e-05;
    m	    [ 0 0  1 0 0 0 0 ] 1;
    n	    [ 0 0  0 0 0 0 0 ] 0.5;
}
powerLawCoeffs
{
    nu0     [ 0 2 -1 0 0 0 0 ] 1e-03;
    nuInf   [ 0 2 -1 0 0 0 0 ] 1e-05;
    k	    [ 0 2 -1 0 0 0 0 ] 1e-05;
    n	    [ 0 0  0 0 0 0 0 ] 1;
}
HerschelBulkleyCoeffs
{
    nu0     [ 0 2 -1 0 0 0 0 ] 1e-03;
    tau0    [ 0 2 -2 0 0 0 0 ] 1;
    k	    [ 0 2 -1 0 0 0 0 ] 1e-05;
    n	    [ 0 0  0 0 0 0 0 ] 1;
}
CassonCoeffs
{
    m       [ 0 2 -1 0 0 0 0 ] 3.934986e-6;
    tau0    [ 0 2 -2 0 0 0 0 ] 2.9032e-6;
    nuMax   [ 0 2 -1 0 0 0 0 ] 13.3333e-6;
    nuMin   [ 0 2 -1 0 0 0 0 ] 3.9047e-6;
}
// ************************************************************************* //
