/*--------------------------------*- C++ -*----------------------------------*\
| =========                 |                                                 |
| \\      /  F ield         | OpenFOAM: The Open Source CFD Toolbox           |
|  \\    /   O peration     | Version:  2112                                  |
|   \\  /    A nd           | Website:  www.openfoam.com                      |
|    \\/     M anipulation  |                                                 |
\*---------------------------------------------------------------------------*/
FoamFile
{
    version     2.0;
    format      binary;
    arch        "LSB;label=32;scalar=64";
    class       volScalarField;
    location    "0";
    object      k;
}
// * * * * * * * * * * * * * * * * * * * * * * * * * * * * * * * * * * * * * //

dimensions      [0 2 -2 0 0 0 0];

internalField   uniform 1.84e-5;    //2.4e-05;

boundaryField
{
    inlet
    {
        type            turbulentIntensityKineticEnergyInlet;
        intensity       0.05;
        value           uniform $internalField;
    }
    outlet
    {
        type            inletOutlet;
        inletValue      uniform $internalField;
        value           uniform $internalField;
    }
    rotor
    {
        type            kqRWallFunction;
        value           uniform $internalField;
    }
    walls
    {
        type            kqRWallFunction;
        value           uniform $internalField;
    }
}


// ************************************************************************* //
