/*--------------------------------*- C++ -*----------------------------------*\
| =========                 |                                                 |
| \\      /  F ield         | OpenFOAM: The Open Source CFD Toolbox           |
|  \\    /   O peration     | Version:  2112                                  |
|   \\  /    A nd           | Website:  www.openfoam.com                      |
|    \\/     M anipulation  |                                                 |
\*---------------------------------------------------------------------------*/
FoamFile
{
    version     2.0;
    format      ascii;
    arch        "LSB;label=32;scalar=64";
    class       featureEdgeMesh;
    location    "constant/triSurface";
    object      chamber.eMesh;
}
// * * * * * * * * * * * * * * * * * * * * * * * * * * * * * * * * * * * * * //


// points:

14273
(
(0.25 0.28 0.1245)
(-0.31 0.28 0.1245)
(0.25 -0.28 0.1245)
(-0.31 -0.28 0.1245)
(0.045 0.61 -0.031)
(0.045 0.61 -0.111)
(-0.105 0.61 -0.111)
(-0.105 0.61 -0.031)
(-0.01863404 0.2367679 -0.03)
(-0.03099997 0.2354682 -0.03)
(-0.06745364 0.2277197 -0.03)
(-0.07927913 0.2238774 -0.03)
(0.07927913 0.2238774 -0.03)
(0.06745364 0.2277197 -0.03)
(0.03099997 0.2354682 -0.03)
(0.01863404 0.2367679 -0.03)
(-0.1133252 0.2087191 -0.03)
(-0.1345215 0.19573 -0.03)
(-0.1634842 0.1722764 -0.03)
(-0.1805964 0.1542439 -0.03)
(0.1240934 0.202502 -0.03)
(0.1022464 0.214364 -0.03)
(0.1722764 0.1634842 -0.03)
(0.1542439 0.1805964 -0.03)
(0.19573 0.1345215 -0.03)
(0.214364 0.1022464 -0.03)
(0.2277197 0.06745364 -0.03)
(0.2354682 0.03099997 -0.03)
(-0.202502 0.1240934 -0.03)
(-0.2194214 0.09088732 -0.03)
(-0.2309379 0.05544327 -0.03)
(-0.2367679 0.01863404 -0.03)
(0.2374186 -0.006217025 -0.03)
(0.2309379 -0.05544327 -0.03)
(0.2194214 -0.09088732 -0.03)
(0.19573 -0.1345215 -0.03)
(-0.2367679 -0.01863404 -0.03)
(-0.2277197 -0.06745364 -0.03)
(-0.214364 -0.1022464 -0.03)
(-0.1884214 -0.1445808 -0.03)
(0.1722764 -0.1634842 -0.03)
(0.1240934 -0.202502 -0.03)
(0.09088732 -0.2194214 -0.03)
(0.03099997 -0.2354682 -0.03)
(-0.1634842 -0.1722764 -0.03)
(-0.1133252 -0.2087191 -0.03)
(-0.07927913 -0.2238774 -0.03)
(-0.01863404 -0.2367679 -0.03)
(-0.186 -0.3 -0.021)
(-0.33 -0.119 -0.021)
(-0.33 0.3 -0.021)
(0.123 0.3 -0.021)
(0.27 0.161 -0.021)
(0.27 -0.161 -0.021)
(0.123 -0.3 -0.021)
(-0.186 -0.3 -0.1305)
(-0.33 -0.119 -0.1305)
(-0.33 0.3 -0.1305)
(0.123 0.3 -0.1305)
(0.27 0.161 -0.1305)
(0.27 -0.161 -0.1305)
(0.123 -0.3 -0.1305)
(-0.33 0.3 0.1145)
(0.27 0.3 0.1145)
(0.27 -0.3 0.1145)
(-0.33 -0.3 0.1145)
(-0.33 0.3 -0.016)
(0.27 0.3 -0.016)
(0.27 -0.3 -0.016)
(-0.33 -0.3 -0.016)
(-0.01863404 0.2367679 -0.016)
(-0.01988938 0.2527185 -0.016)
(-0.01988938 0.2527185 -0.032)
(-0.01867326 0.2372663 -0.032)
(-0.01867326 0.2372663 -0.03)
(-0.03099997 0.2354682 -0.016)
(-0.03308839 0.2513313 -0.016)
(-0.03106523 0.2359639 -0.032)
(-0.03106523 0.2359639 -0.03)
(-0.03308839 0.2513313 -0.032)
(-0.06745364 0.2277197 -0.016)
(-0.07199789 0.2430608 -0.016)
(-0.06759565 0.2281991 -0.03)
(-0.06759565 0.2281991 -0.032)
(-0.07199789 0.2430608 -0.032)
(-0.07927913 0.2238774 -0.016)
(-0.08462004 0.2389596 -0.032)
(-0.08462004 0.2389596 -0.016)
(-0.07944603 0.2243487 -0.032)
(-0.07944603 0.2243487 -0.03)
(0.07927913 0.2238774 -0.016)
(0.08462004 0.2389596 -0.016)
(0.08462004 0.2389596 -0.032)
(0.07944603 0.2243487 -0.032)
(0.07944603 0.2243487 -0.03)
(0.06745364 0.2277197 -0.016)
(0.07199789 0.2430608 -0.032)
(0.07199789 0.2430608 -0.016)
(0.06759565 0.2281991 -0.032)
(0.06759565 0.2281991 -0.03)
(0.03308839 0.2513313 -0.016)
(0.03106523 0.2359639 -0.032)
(0.03106523 0.2359639 -0.03)
(0.03308839 0.2513313 -0.032)
(0.03099997 0.2354682 -0.016)
(0.01863404 0.2367679 -0.016)
(0.01988938 0.2527185 -0.016)
(0.01988938 0.2527185 -0.032)
(0.01867326 0.2372663 -0.032)
(0.01867326 0.2372663 -0.03)
(-0.1133252 0.2087191 -0.016)
(-0.1209597 0.2227801 -0.016)
(-0.1135638 0.2091585 -0.03)
(-0.1135638 0.2091585 -0.032)
(-0.1209597 0.2227801 -0.032)
(-0.1345215 0.19573 -0.016)
(-0.143584 0.208916 -0.016)
(-0.1348047 0.196142 -0.032)
(-0.1348047 0.196142 -0.03)
(-0.143584 0.208916 -0.032)
(-0.1634842 0.1722764 -0.016)
(-0.1744979 0.1838824 -0.016)
(-0.1744979 0.1838824 -0.032)
(-0.1638284 0.1726391 -0.032)
(-0.1638284 0.1726391 -0.03)
(-0.1805964 0.1542439 -0.016)
(-0.1927629 0.1646351 -0.016)
(-0.1809766 0.1545686 -0.032)
(-0.1809766 0.1545686 -0.03)
(-0.1927629 0.1646351 -0.032)
(0.1022464 0.214364 -0.016)
(0.1240934 0.202502 -0.016)
(0.1091346 0.2288054 -0.016)
(0.1024616 0.2148153 -0.032)
(0.1024616 0.2148153 -0.03)
(0.1091346 0.2288054 -0.032)
(0.1324534 0.2161443 -0.016)
(0.1324534 0.2161443 -0.032)
(0.1243547 0.2029284 -0.032)
(0.1243547 0.2029284 -0.03)
(0.1542439 0.1805964 -0.016)
(0.1722764 0.1634842 -0.016)
(0.1646351 0.1927629 -0.016)
(0.1545686 0.1809766 -0.032)
(0.1545686 0.1809766 -0.03)
(0.1646351 0.1927629 -0.032)
(0.1838824 0.1744979 -0.016)
(0.1838824 0.1744979 -0.032)
(0.1726391 0.1638284 -0.032)
(0.1726391 0.1638284 -0.03)
(0.208916 0.143584 -0.032)
(0.208916 0.143584 -0.016)
(0.19573 0.1345215 -0.016)
(0.196142 0.1348047 -0.032)
(0.196142 0.1348047 -0.03)
(0.2288054 0.1091346 -0.016)
(0.2288054 0.1091346 -0.032)
(0.214364 0.1022464 -0.016)
(0.2148153 0.1024616 -0.03)
(0.2148153 0.1024616 -0.032)
(0.2281991 0.06759565 -0.032)
(0.2430608 0.07199789 -0.016)
(0.2277197 0.06745364 -0.016)
(0.2281991 0.06759565 -0.03)
(0.2430608 0.07199789 -0.032)
(0.2513313 0.03308839 -0.016)
(0.2513313 0.03308839 -0.032)
(0.2354682 0.03099997 -0.016)
(0.2359639 0.03106523 -0.03)
(0.2359639 0.03106523 -0.032)
(-0.2161443 0.1324534 -0.016)
(-0.2342035 0.09701025 -0.032)
(-0.2342035 0.09701025 -0.016)
(-0.2161443 0.1324534 -0.032)
(-0.202502 0.1240934 -0.016)
(-0.2029284 0.1243547 -0.03)
(-0.2029284 0.1243547 -0.032)
(-0.2194214 0.09088732 -0.016)
(-0.2198833 0.09107866 -0.032)
(-0.2198833 0.09107866 -0.03)
(-0.2464958 0.0591784 -0.016)
(-0.2527185 0.01988938 -0.032)
(-0.2527185 0.01988938 -0.016)
(-0.2464958 0.0591784 -0.032)
(-0.2309379 0.05544327 -0.016)
(-0.231424 0.05556 -0.03)
(-0.231424 0.05556 -0.032)
(-0.2367679 0.01863404 -0.016)
(-0.2372663 0.01867326 -0.032)
(-0.2372663 0.01867326 -0.03)
(0.2534131 -0.006635856 -0.016)
(0.2374186 -0.006217025 -0.016)
(0.2534131 -0.006635856 -0.032)
(0.2379184 -0.006230114 -0.032)
(0.2379184 -0.006230114 -0.03)
(0.2464958 -0.0591784 -0.016)
(0.2464958 -0.0591784 -0.032)
(0.2309379 -0.05544327 -0.016)
(0.231424 -0.05556 -0.032)
(0.231424 -0.05556 -0.03)
(0.2342035 -0.09701025 -0.016)
(0.2198833 -0.09107866 -0.032)
(0.2198833 -0.09107866 -0.03)
(0.2342035 -0.09701025 -0.032)
(0.2194214 -0.09088732 -0.016)
(0.208916 -0.143584 -0.016)
(0.208916 -0.143584 -0.032)
(0.19573 -0.1345215 -0.016)
(0.196142 -0.1348047 -0.032)
(0.196142 -0.1348047 -0.03)
(-0.2527185 -0.01988938 -0.016)
(-0.2430608 -0.07199789 -0.032)
(-0.2430608 -0.07199789 -0.016)
(-0.2527185 -0.01988938 -0.032)
(-0.2367679 -0.01863404 -0.016)
(-0.2372663 -0.01867326 -0.03)
(-0.2372663 -0.01867326 -0.032)
(-0.2277197 -0.06745364 -0.016)
(-0.2281991 -0.06759565 -0.032)
(-0.2281991 -0.06759565 -0.03)
(-0.2288054 -0.1091346 -0.016)
(-0.2011151 -0.154321 -0.016)
(-0.2288054 -0.1091346 -0.032)
(-0.2011151 -0.154321 -0.032)
(-0.2148153 -0.1024616 -0.03)
(-0.2148153 -0.1024616 -0.032)
(-0.214364 -0.1022464 -0.016)
(-0.1884214 -0.1445808 -0.016)
(-0.1888181 -0.1448852 -0.032)
(-0.1888181 -0.1448852 -0.03)
(0.1838824 -0.1744979 -0.016)
(0.1722764 -0.1634842 -0.016)
(0.1726391 -0.1638284 -0.032)
(0.1726391 -0.1638284 -0.03)
(0.1838824 -0.1744979 -0.032)
(0.1324534 -0.2161443 -0.016)
(0.1324534 -0.2161443 -0.032)
(0.1240934 -0.202502 -0.016)
(0.1243547 -0.2029284 -0.03)
(0.1243547 -0.2029284 -0.032)
(0.09701025 -0.2342035 -0.016)
(0.09088732 -0.2194214 -0.016)
(0.09107866 -0.2198833 -0.032)
(0.09107866 -0.2198833 -0.03)
(0.09701025 -0.2342035 -0.032)
(0.03308839 -0.2513313 -0.016)
(0.03308839 -0.2513313 -0.032)
(0.03099997 -0.2354682 -0.016)
(0.03106523 -0.2359639 -0.032)
(0.03106523 -0.2359639 -0.03)
(-0.1744979 -0.1838824 -0.016)
(-0.1209597 -0.2227801 -0.032)
(-0.1209597 -0.2227801 -0.016)
(-0.1744979 -0.1838824 -0.032)
(-0.1634842 -0.1722764 -0.016)
(-0.1638284 -0.1726391 -0.032)
(-0.1638284 -0.1726391 -0.03)
(-0.1133252 -0.2087191 -0.016)
(-0.1135638 -0.2091585 -0.032)
(-0.1135638 -0.2091585 -0.03)
(-0.08462004 -0.2389596 -0.016)
(-0.01988938 -0.2527185 -0.032)
(-0.01988938 -0.2527185 -0.016)
(-0.08462004 -0.2389596 -0.032)
(-0.07927913 -0.2238774 -0.016)
(-0.07944603 -0.2243487 -0.03)
(-0.07944603 -0.2243487 -0.032)
(-0.01863404 -0.2367679 -0.016)
(-0.01867326 -0.2372663 -0.032)
(-0.01867326 -0.2372663 -0.03)
(-0.186 -0.182 -0.021)
(-0.231 -0.119 -0.021)
(0.123 0.2295 -0.021)
(0.2125 0.161 -0.021)
(0.2125 -0.161 -0.021)
(0.123 -0.2295 -0.021)
(-0.186 -0.182 -0.1305)
(-0.231 -0.119 -0.1305)
(-0.105 0.3 -0.031)
(-0.105 0.3 -0.111)
(0.045 0.3 -0.031)
(0.045 0.3 -0.111)
(0.123 0.2295 -0.1305)
(0.2125 0.161 -0.1305)
(0.2125 -0.161 -0.1305)
(0.123 -0.2295 -0.1305)
(-0.31 0.28 0.1145)
(0.25 0.28 0.1145)
(0.25 -0.28 0.1145)
(-0.31 -0.28 0.1145)
(0.24328 0.28 0.1245)
(0.25 0.27496 0.1245)
(0.23544 0.28 0.1245)
(0.22648 0.28 0.1245)
(0.21808 0.28 0.1245)
(0.20968 0.28 0.1245)
(0.20072 0.28 0.1245)
(0.19232 0.28 0.1245)
(0.18392 0.28 0.1245)
(0.17496 0.28 0.1245)
(0.16656 0.28 0.1245)
(0.15816 0.28 0.1245)
(0.1492 0.28 0.1245)
(0.1408 0.28 0.1245)
(0.1324 0.28 0.1245)
(0.12344 0.28 0.1245)
(0.11504 0.28 0.1245)
(0.10664 0.28 0.1245)
(0.09768 0.28 0.1245)
(0.08928 0.28 0.1245)
(0.08088 0.28 0.1245)
(0.07192 0.28 0.1245)
(0.06352 0.28 0.1245)
(0.05512 0.28 0.1245)
(0.04616 0.28 0.1245)
(0.03776 0.28 0.1245)
(0.02936 0.28 0.1245)
(0.0204 0.28 0.1245)
(0.012 0.28 0.1245)
(0.0036 0.28 0.1245)
(-0.00536 0.28 0.1245)
(-0.01376 0.28 0.1245)
(-0.02216 0.28 0.1245)
(-0.03112 0.28 0.1245)
(-0.03952 0.28 0.1245)
(-0.04792 0.28 0.1245)
(-0.05688 0.28 0.1245)
(-0.06528 0.28 0.1245)
(-0.07368 0.28 0.1245)
(-0.08264 0.28 0.1245)
(-0.09104 0.28 0.1245)
(-0.09944 0.28 0.1245)
(-0.1084 0.28 0.1245)
(-0.1168 0.28 0.1245)
(-0.1252 0.28 0.1245)
(-0.13416 0.28 0.1245)
(-0.14256 0.28 0.1245)
(-0.15096 0.28 0.1245)
(-0.15992 0.28 0.1245)
(-0.16832 0.28 0.1245)
(-0.17672 0.28 0.1245)
(-0.18568 0.28 0.1245)
(-0.19408 0.28 0.1245)
(-0.20248 0.28 0.1245)
(-0.21144 0.28 0.1245)
(-0.21984 0.28 0.1245)
(-0.22824 0.28 0.1245)
(-0.2372 0.28 0.1245)
(-0.2456 0.28 0.1245)
(-0.254 0.28 0.1245)
(-0.26296 0.28 0.1245)
(-0.27136 0.28 0.1245)
(-0.27976 0.28 0.1245)
(-0.28872 0.28 0.1245)
(-0.29712 0.28 0.1245)
(-0.3044 0.28 0.1245)
(-0.31 0.27496 0.1245)
(0.25 -0.27384 0.1245)
(0.24496 -0.28 0.1245)
(0.25 -0.26824 0.1245)
(0.25 -0.2632 0.1245)
(0.25 -0.2576 0.1245)
(0.25 -0.25144 0.1245)
(0.25 -0.2464 0.1245)
(0.25 -0.2408 0.1245)
(0.25 -0.23576 0.1245)
(0.25 -0.23016 0.1245)
(0.25 -0.224 0.1245)
(0.25 -0.2184 0.1245)
(0.25 -0.21336 0.1245)
(0.25 -0.20776 0.1245)
(0.25 -0.2016 0.1245)
(0.25 -0.196 0.1245)
(0.25 -0.19096 0.1245)
(0.25 -0.18536 0.1245)
(0.25 -0.1792 0.1245)
(0.25 -0.1736 0.1245)
(0.25 -0.16856 0.1245)
(0.25 -0.16296 0.1245)
(0.25 -0.15736 0.1245)
(0.25 -0.15232 0.1245)
(0.25 -0.14616 0.1245)
(0.25 -0.14112 0.1245)
(0.25 -0.13552 0.1245)
(0.25 -0.13048 0.1245)
(0.25 -0.12376 0.1245)
(0.25 -0.11872 0.1245)
(0.25 -0.11368 0.1245)
(0.25 -0.10808 0.1245)
(0.25 -0.10248 0.1245)
(0.25 -0.09688 0.1245)
(0.25 -0.09128 0.1245)
(0.25 -0.08568 0.1245)
(0.25 -0.08008 0.1245)
(0.25 -0.07448 0.1245)
(0.25 -0.06832 0.1245)
(0.25 -0.06328 0.1245)
(0.25 -0.05768 0.1245)
(0.25 -0.05208 0.1245)
(0.25 -0.04648 0.1245)
(0.25 -0.04088 0.1245)
(0.25 -0.03528 0.1245)
(0.25 -0.03024 0.1245)
(0.25 -0.02464 0.1245)
(0.25 -0.01848 0.1245)
(0.25 -0.01344 0.1245)
(0.25 -0.0084 0.1245)
(0.25 -0.0028 0.1245)
(0.25 0.00336 0.1245)
(0.25 0.0084 0.1245)
(0.25 0.014 0.1245)
(0.25 0.0196 0.1245)
(0.25 0.02464 0.1245)
(0.25 0.0308 0.1245)
(0.25 0.0364 0.1245)
(0.25 0.042 0.1245)
(0.25 0.04704 0.1245)
(0.25 0.0532 0.1245)
(0.25 0.05936 0.1245)
(0.25 0.06384 0.1245)
(0.25 0.06944 0.1245)
(0.25 0.0756 0.1245)
(0.25 0.0812 0.1245)
(0.25 0.0868 0.1245)
(0.25 0.0924 0.1245)
(0.25 0.09744 0.1245)
(0.25 0.10304 0.1245)
(0.25 0.1092 0.1245)
(0.25 0.11424 0.1245)
(0.25 0.11928 0.1245)
(0.25 0.12488 0.1245)
(0.25 0.13104 0.1245)
(0.25 0.13608 0.1245)
(0.25 0.14168 0.1245)
(0.25 0.14728 0.1245)
(0.25 0.15232 0.1245)
(0.25 0.15848 0.1245)
(0.25 0.16408 0.1245)
(0.25 0.16968 0.1245)
(0.25 0.17472 0.1245)
(0.25 0.18088 0.1245)
(0.25 0.18704 0.1245)
(0.25 0.19208 0.1245)
(0.25 0.19712 0.1245)
(0.25 0.20328 0.1245)
(0.25 0.20888 0.1245)
(0.25 0.21448 0.1245)
(0.25 0.22008 0.1245)
(0.25 0.22568 0.1245)
(0.25 0.23072 0.1245)
(0.25 0.23688 0.1245)
(0.25 0.24192 0.1245)
(0.25 0.24696 0.1245)
(0.25 0.25256 0.1245)
(0.25 0.25872 0.1245)
(0.25 0.26376 0.1245)
(0.25 0.26936 0.1245)
(-0.30384 -0.28 0.1245)
(-0.31 -0.27496 0.1245)
(-0.29768 -0.28 0.1245)
(-0.29264 -0.28 0.1245)
(-0.28704 -0.28 0.1245)
(-0.28088 -0.28 0.1245)
(-0.27528 -0.28 0.1245)
(-0.26968 -0.28 0.1245)
(-0.26408 -0.28 0.1245)
(-0.25792 -0.28 0.1245)
(-0.25232 -0.28 0.1245)
(-0.24728 -0.28 0.1245)
(-0.24168 -0.28 0.1245)
(-0.23608 -0.28 0.1245)
(-0.23048 -0.28 0.1245)
(-0.22488 -0.28 0.1245)
(-0.21984 -0.28 0.1245)
(-0.21424 -0.28 0.1245)
(-0.20808 -0.28 0.1245)
(-0.20248 -0.28 0.1245)
(-0.19744 -0.28 0.1245)
(-0.1924 -0.28 0.1245)
(-0.1868 -0.28 0.1245)
(-0.1812 -0.28 0.1245)
(-0.17504 -0.28 0.1245)
(-0.16888 -0.28 0.1245)
(-0.16384 -0.28 0.1245)
(-0.15824 -0.28 0.1245)
(-0.15208 -0.28 0.1245)
(-0.14648 -0.28 0.1245)
(-0.14088 -0.28 0.1245)
(-0.13528 -0.28 0.1245)
(-0.12912 -0.28 0.1245)
(-0.12352 -0.28 0.1245)
(-0.11848 -0.28 0.1245)
(-0.11288 -0.28 0.1245)
(-0.10728 -0.28 0.1245)
(-0.10168 -0.28 0.1245)
(-0.09664 -0.28 0.1245)
(-0.09104 -0.28 0.1245)
(-0.086 -0.28 0.1245)
(-0.07984 -0.28 0.1245)
(-0.07424 -0.28 0.1245)
(-0.0692 -0.28 0.1245)
(-0.0636 -0.28 0.1245)
(-0.058 -0.28 0.1245)
(-0.0524 -0.28 0.1245)
(-0.0468 -0.28 0.1245)
(-0.04064 -0.28 0.1245)
(-0.03504 -0.28 0.1245)
(-0.02944 -0.28 0.1245)
(-0.02384 -0.28 0.1245)
(-0.01768 -0.28 0.1245)
(-0.01208 -0.28 0.1245)
(-0.00704 -0.28 0.1245)
(-0.00088 -0.28 0.1245)
(0.00472 -0.28 0.1245)
(0.00976 -0.28 0.1245)
(0.01536 -0.28 0.1245)
(0.02152 -0.28 0.1245)
(0.02656 -0.28 0.1245)
(0.03216 -0.28 0.1245)
(0.03776 -0.28 0.1245)
(0.0428 -0.28 0.1245)
(0.04896 -0.28 0.1245)
(0.05456 -0.28 0.1245)
(0.0596 -0.28 0.1245)
(0.06464 -0.28 0.1245)
(0.07024 -0.28 0.1245)
(0.0764 -0.28 0.1245)
(0.082 -0.28 0.1245)
(0.08816 -0.28 0.1245)
(0.0932 -0.28 0.1245)
(0.0988 -0.28 0.1245)
(0.1044 -0.28 0.1245)
(0.11112 -0.28 0.1245)
(0.11616 -0.28 0.1245)
(0.12176 -0.28 0.1245)
(0.12792 -0.28 0.1245)
(0.13352 -0.28 0.1245)
(0.13856 -0.28 0.1245)
(0.1436 -0.28 0.1245)
(0.14976 -0.28 0.1245)
(0.15536 -0.28 0.1245)
(0.1604 -0.28 0.1245)
(0.166 -0.28 0.1245)
(0.1716 -0.28 0.1245)
(0.1772 -0.28 0.1245)
(0.1828 -0.28 0.1245)
(0.18784 -0.28 0.1245)
(0.19344 -0.28 0.1245)
(0.19848 -0.28 0.1245)
(0.2052 -0.28 0.1245)
(0.21024 -0.28 0.1245)
(0.2164 -0.28 0.1245)
(0.22144 -0.28 0.1245)
(0.2276 -0.28 0.1245)
(0.2332 -0.28 0.1245)
(0.23936 -0.28 0.1245)
(-0.31 0.2688 0.1245)
(-0.31 0.2632 0.1245)
(-0.31 0.2576 0.1245)
(-0.31 0.25256 0.1245)
(-0.31 0.2464 0.1245)
(-0.31 0.24024 0.1245)
(-0.31 0.23576 0.1245)
(-0.31 0.23016 0.1245)
(-0.31 0.224 0.1245)
(-0.31 0.2184 0.1245)
(-0.31 0.2128 0.1245)
(-0.31 0.2072 0.1245)
(-0.31 0.20216 0.1245)
(-0.31 0.19656 0.1245)
(-0.31 0.1904 0.1245)
(-0.31 0.18536 0.1245)
(-0.31 0.18032 0.1245)
(-0.31 0.17472 0.1245)
(-0.31 0.16856 0.1245)
(-0.31 0.16352 0.1245)
(-0.31 0.15792 0.1245)
(-0.31 0.15232 0.1245)
(-0.31 0.14672 0.1245)
(-0.31 0.14112 0.1245)
(-0.31 0.13552 0.1245)
(-0.31 0.12992 0.1245)
(-0.31 0.12488 0.1245)
(-0.31 0.11872 0.1245)
(-0.31 0.11312 0.1245)
(-0.31 0.10808 0.1245)
(-0.31 0.10248 0.1245)
(-0.31 0.09632 0.1245)
(-0.31 0.09072 0.1245)
(-0.31 0.08512 0.1245)
(-0.31 0.07952 0.1245)
(-0.31 0.07448 0.1245)
(-0.31 0.06888 0.1245)
(-0.31 0.06272 0.1245)
(-0.31 0.05768 0.1245)
(-0.31 0.05264 0.1245)
(-0.31 0.04704 0.1245)
(-0.31 0.04088 0.1245)
(-0.31 0.03584 0.1245)
(-0.31 0.03024 0.1245)
(-0.31 0.02464 0.1245)
(-0.31 0.0196 0.1245)
(-0.31 0.01344 0.1245)
(-0.31 0.00784 0.1245)
(-0.31 0.00224 0.1245)
(-0.31 -0.0028 0.1245)
(-0.31 -0.00896 0.1245)
(-0.31 -0.01456 0.1245)
(-0.31 -0.0196 0.1245)
(-0.31 -0.0252 0.1245)
(-0.31 -0.0308 0.1245)
(-0.31 -0.03696 0.1245)
(-0.31 -0.04256 0.1245)
(-0.31 -0.0476 0.1245)
(-0.31 -0.0532 0.1245)
(-0.31 -0.05824 0.1245)
(-0.31 -0.0644 0.1245)
(-0.31 -0.06944 0.1245)
(-0.31 -0.07504 0.1245)
(-0.31 -0.08064 0.1245)
(-0.31 -0.08624 0.1245)
(-0.31 -0.09184 0.1245)
(-0.31 -0.09688 0.1245)
(-0.31 -0.10248 0.1245)
(-0.31 -0.10808 0.1245)
(-0.31 -0.11368 0.1245)
(-0.31 -0.11984 0.1245)
(-0.31 -0.12488 0.1245)
(-0.31 -0.12992 0.1245)
(-0.31 -0.13664 0.1245)
(-0.31 -0.14224 0.1245)
(-0.31 -0.14728 0.1245)
(-0.31 -0.15288 0.1245)
(-0.31 -0.15848 0.1245)
(-0.31 -0.16408 0.1245)
(-0.31 -0.16968 0.1245)
(-0.31 -0.17528 0.1245)
(-0.31 -0.18032 0.1245)
(-0.31 -0.18592 0.1245)
(-0.31 -0.19208 0.1245)
(-0.31 -0.19712 0.1245)
(-0.31 -0.20272 0.1245)
(-0.31 -0.20776 0.1245)
(-0.31 -0.21392 0.1245)
(-0.31 -0.21896 0.1245)
(-0.31 -0.22456 0.1245)
(-0.31 -0.23016 0.1245)
(-0.31 -0.2352 0.1245)
(-0.31 -0.24136 0.1245)
(-0.31 -0.24696 0.1245)
(-0.31 -0.252 0.1245)
(-0.31 -0.2576 0.1245)
(-0.31 -0.26376 0.1245)
(-0.31 -0.26936 0.1245)
(-0.00585 0.61 -0.111)
(-0.0594 0.61 -0.111)
(-0.0681 0.61 -0.031)
(-0.03075 0.61 -0.031)
(0.0063 0.61 -0.031)
(0.045 0.61 -0.069)
(-0.105 0.61 -0.07244)
(-0.01877714 0.2385862 -0.016)
(-0.01896796 0.2410107 -0.016)
(-0.01924037 0.244472 -0.016)
(-0.0196245 0.249353 -0.016)
(-0.01880339 0.2389197 -0.032)
(-0.01896513 0.2409749 -0.032)
(-0.019212 0.2441117 -0.032)
(-0.01950995 0.2478975 -0.032)
(-0.01974588 0.2508952 -0.032)
(-0.0294952 0.2356614 -0.016)
(-0.02015849 0.2366429 -0.016)
(-0.02170687 0.2365059 -0.016)
(-0.02343995 0.2363405 -0.016)
(-0.02496155 0.2361846 -0.016)
(-0.02646975 0.2360203 -0.016)
(-0.02798923 0.235845 -0.016)
(-0.03254214 0.2471821 -0.032)
(-0.03202623 0.2432634 -0.032)
(-0.03153056 0.2394984 -0.032)
(-0.03262476 0.2478097 -0.016)
(-0.03121508 0.2371021 -0.016)
(-0.03149701 0.2392436 -0.016)
(-0.03286989 0.2496716 -0.032)
(-0.0312716 0.2375314 -0.032)
(-0.03199615 0.2430349 -0.016)
(-0.02332783 0.2524244 -0.016)
(-0.02158266 0.2525796 -0.032)
(-0.02318244 0.2524378 -0.032)
(-0.02486055 0.252278 -0.032)
(-0.02644516 0.2521168 -0.032)
(-0.02802873 0.2519457 -0.032)
(-0.0296771 0.2517569 -0.032)
(-0.03140322 0.2515474 -0.032)
(-0.02653757 0.2521071 -0.016)
(-0.02984845 0.2517366 -0.016)
(-0.06795351 0.2294072 -0.016)
(-0.06979848 0.2356357 -0.016)
(-0.06866696 0.2318158 -0.016)
(-0.07106632 0.2399159 -0.016)
(-0.06807109 0.2298042 -0.032)
(-0.0686698 0.2318254 -0.032)
(-0.06956785 0.2348571 -0.032)
(-0.07067282 0.2385874 -0.032)
(-0.07146522 0.2412625 -0.032)
(-0.07762415 0.2244565 -0.016)
(-0.06914488 0.2272119 -0.016)
(-0.0708323 0.2266915 -0.016)
(-0.0725158 0.2261586 -0.016)
(-0.07427798 0.225586 -0.016)
(-0.07595317 0.2250275 -0.016)
(-0.08391637 0.2369725 -0.032)
(-0.08278327 0.2337727 -0.032)
(-0.08127246 0.2295063 -0.032)
(-0.08012383 0.2262627 -0.032)
(-0.08342902 0.2355963 -0.016)
(-0.08083333 0.2282663 -0.016)
(-0.08199231 0.2315391 -0.016)
(-0.0799147 0.2256721 -0.016)
(-0.07503384 0.2421408 -0.016)
(-0.07352365 0.2426036 -0.032)
(-0.07509723 0.2421212 -0.032)
(-0.07673089 0.2416084 -0.032)
(-0.07829794 0.2411051 -0.032)
(-0.07986168 0.2405917 -0.032)
(-0.08149747 0.2400425 -0.032)
(-0.08306679 0.239504 -0.032)
(-0.07814643 0.2411543 -0.016)
(-0.08142206 0.2400681 -0.016)
(0.07986663 0.2255364 -0.016)
(0.08074254 0.2280099 -0.016)
(0.08206708 0.2317503 -0.016)
(0.08359993 0.2360789 -0.016)
(0.08016522 0.2263796 -0.032)
(0.08127246 0.2295063 -0.032)
(0.08269531 0.2335243 -0.032)
(0.08390603 0.2369433 -0.032)
(0.06890691 0.2272842 -0.016)
(0.07782392 0.2243874 -0.016)
(0.07638897 0.2248799 -0.016)
(0.07493911 0.2253672 -0.016)
(0.07339154 0.2258759 -0.016)
(0.07193532 0.2263439 -0.016)
(0.07047613 0.2268025 -0.016)
(0.07143881 0.2411734 -0.032)
(0.07060678 0.2383645 -0.032)
(0.06955025 0.2347977 -0.032)
(0.06869621 0.2319145 -0.032)
(0.06804028 0.2297001 -0.032)
(0.07109359 0.2400079 -0.016)
(0.06863515 0.2317084 -0.016)
(0.06970305 0.2353135 -0.016)
(0.06793988 0.2293612 -0.016)
(0.08217585 0.2398111 -0.016)
(0.08311695 0.2394866 -0.032)
(0.08156031 0.2400212 -0.032)
(0.07993726 0.2405666 -0.032)
(0.07836105 0.2410846 -0.032)
(0.07679414 0.2415883 -0.032)
(0.07514794 0.2421054 -0.032)
(0.07357446 0.2425882 -0.032)
(0.07461534 0.2422701 -0.016)
(0.07963489 0.2406669 -0.016)
(0.07709767 0.2414916 -0.016)
(0.03221752 0.2447164 -0.016)
(0.03169333 0.2407347 -0.016)
(0.03270203 0.2483966 -0.016)
(0.03126957 0.237516 -0.032)
(0.03152449 0.2394523 -0.032)
(0.03198375 0.2429407 -0.032)
(0.03128191 0.2376097 -0.016)
(0.03248751 0.2467672 -0.032)
(0.03287798 0.2497331 -0.032)
(0.02019566 0.2366398 -0.016)
(0.02953222 0.2356567 -0.016)
(0.02807567 0.2358347 -0.016)
(0.02660569 0.2360051 -0.016)
(0.02508521 0.2361715 -0.016)
(0.02350182 0.2363343 -0.016)
(0.02185546 0.2364923 -0.016)
(0.01974101 0.2508334 -0.032)
(0.01951725 0.2479902 -0.032)
(0.01921808 0.2441889 -0.032)
(0.01896635 0.2409903 -0.032)
(0.01880339 0.2389197 -0.032)
(0.01964333 0.2495922 -0.016)
(0.01898302 0.2412022 -0.016)
(0.01930439 0.2452855 -0.016)
(0.01877463 0.2385543 -0.016)
(0.03053375 0.2516544 -0.016)
(0.0315481 0.2515293 -0.032)
(0.029888 0.2517319 -0.032)
(0.02823979 0.2519221 -0.032)
(0.02656397 0.2521044 -0.032)
(0.02493981 0.2522702 -0.032)
(0.02323531 0.2524329 -0.032)
(0.02158266 0.2525796 -0.032)
(0.02244216 0.2525047 -0.016)
(0.02775168 0.2519764 -0.016)
(0.02521718 0.2522426 -0.016)
(-0.1141955 0.210322 -0.016)
(-0.1153331 0.2124171 -0.016)
(-0.1170967 0.2156652 -0.016)
(-0.1193183 0.219757 -0.016)
(-0.1144217 0.2107386 -0.032)
(-0.1155459 0.2128091 -0.032)
(-0.1169955 0.2154789 -0.032)
(-0.1185561 0.2183531 -0.032)
(-0.12005 0.2211047 -0.032)
(-0.1332067 0.1966271 -0.016)
(-0.1147433 0.2079429 -0.016)
(-0.116156 0.207157 -0.016)
(-0.1176282 0.2063246 -0.016)
(-0.119159 0.2054444 -0.016)
(-0.1205761 0.2046159 -0.016)
(-0.1220301 0.2037521 -0.016)
(-0.1233929 0.2029297 -0.016)
(-0.1247713 0.2020851 -0.016)
(-0.1263336 0.2011121 -0.016)
(-0.1276995 0.2002475 -0.016)
(-0.1291014 0.1993467 -0.016)
(-0.1304553 0.1984633 -0.016)
(-0.1318031 0.1975707 -0.016)
(-0.1426709 0.2075875 -0.032)
(-0.141354 0.2056714 -0.032)
(-0.1393524 0.2027589 -0.032)
(-0.1373068 0.1997826 -0.032)
(-0.1358845 0.1977132 -0.032)
(-0.1416174 0.2060546 -0.016)
(-0.137059 0.1994221 -0.016)
(-0.1391343 0.2024417 -0.016)
(-0.1354187 0.1970354 -0.016)
(-0.123657 0.2212944 -0.016)
(-0.1224269 0.2219773 -0.032)
(-0.123935 0.2211388 -0.032)
(-0.1252989 0.2203689 -0.032)
(-0.126773 0.2195242 -0.032)
(-0.128104 0.2187501 -0.032)
(-0.1294759 0.2179409 -0.032)
(-0.1308882 0.2170957 -0.032)
(-0.1323402 0.2162136 -0.032)
(-0.1337637 0.2153358 -0.032)
(-0.1352488 0.2144062 -0.032)
(-0.1366604 0.2135092 -0.032)
(-0.138066 0.212603 -0.032)
(-0.1394434 0.2117021 -0.032)
(-0.140815 0.2107923 -0.032)
(-0.1421806 0.2098736 -0.032)
(-0.1411239 0.2105856 -0.016)
(-0.1261518 0.2198817 -0.016)
(-0.1284932 0.2185217 -0.016)
(-0.1311381 0.2169448 -0.016)
(-0.1336284 0.2154198 -0.016)
(-0.1362353 0.2137807 -0.016)
(-0.1385777 0.2122698 -0.016)
(-0.1647288 0.1735879 -0.016)
(-0.1692774 0.1783812 -0.016)
(-0.1667553 0.1757234 -0.016)
(-0.1723833 0.1816541 -0.016)
(-0.164938 0.1738084 -0.032)
(-0.1664744 0.1754274 -0.032)
(-0.1689604 0.1780471 -0.032)
(-0.1715744 0.1808017 -0.032)
(-0.1733349 0.1826569 -0.032)
(-0.1794935 0.155526 -0.016)
(-0.1646351 0.1711769 -0.016)
(-0.1657787 0.1700696 -0.016)
(-0.1669501 0.1689198 -0.016)
(-0.1681663 0.1677091 -0.016)
(-0.1692865 0.1665783 -0.016)
(-0.1703818 0.1654578 -0.016)
(-0.1715041 0.1642942 -0.016)
(-0.1726867 0.1630507 -0.016)
(-0.1738943 0.1617623 -0.016)
(-0.1750249 0.1605382 -0.016)
(-0.1762137 0.1592325 -0.016)
(-0.17731 0.1580108 -0.016)
(-0.178365 0.1568189 -0.016)
(-0.1915254 0.1635781 -0.032)
(-0.1892388 0.1616252 -0.032)
(-0.1862805 0.1590985 -0.032)
(-0.1839703 0.1571255 -0.032)
(-0.1822024 0.1556155 -0.032)
(-0.1904999 0.1627023 -0.016)
(-0.1839787 0.1571327 -0.016)
(-0.1871663 0.1598551 -0.016)
(-0.1819834 0.1554285 -0.016)
(-0.176452 0.1820081 -0.016)
(-0.1756307 0.1828008 -0.032)
(-0.1768518 0.1816196 -0.032)
(-0.1779706 0.1805235 -0.032)
(-0.1791201 0.1793829 -0.032)
(-0.1803183 0.1781784 -0.032)
(-0.1814343 0.1770419 -0.032)
(-0.1825799 0.1758602 -0.032)
(-0.1836996 0.1746904 -0.032)
(-0.1848299 0.173494 -0.032)
(-0.1859344 0.1723098 -0.032)
(-0.1871208 0.1710206 -0.032)
(-0.1882806 0.1697429 -0.032)
(-0.1894316 0.1684574 -0.032)
(-0.1905739 0.1671641 -0.032)
(-0.1916552 0.1659233 -0.032)
(-0.1908537 0.1668446 -0.016)
(-0.1786687 0.1798325 -0.016)
(-0.1808772 0.1776111 -0.016)
(-0.1830397 0.1753816 -0.016)
(-0.1848844 0.1734359 -0.016)
(-0.1868699 0.1712947 -0.016)
(-0.1887775 0.1691901 -0.016)
(0.1037031 0.2136631 -0.016)
(0.1227335 0.2033292 -0.016)
(0.1213252 0.2041726 -0.016)
(0.1198253 0.2050564 -0.016)
(0.1183621 0.2059045 -0.016)
(0.1168712 0.2067544 -0.016)
(0.1154395 0.2075572 -0.016)
(0.1139804 0.208362 -0.016)
(0.1124499 0.2091919 -0.016)
(0.1110674 0.2099292 -0.016)
(0.1097021 0.2106459 -0.016)
(0.108155 0.2114444 -0.016)
(0.1066022 0.2122316 -0.016)
(0.1051774 0.2129412 -0.016)
(0.108494 0.2274623 -0.032)
(0.1076131 0.2256156 -0.032)
(0.1059583 0.2221461 -0.032)
(0.1079498 0.2263215 -0.016)
(0.1063449 0.2229566 -0.016)
(0.1043128 0.2186964 -0.016)
(0.1030523 0.2160536 -0.016)
(0.1031223 0.2162003 -0.032)
(0.1042633 0.2185926 -0.032)
(0.1299549 0.2176557 -0.016)
(0.13107 0.216986 -0.032)
(0.1296584 0.2178324 -0.032)
(0.1281727 0.2187099 -0.032)
(0.126681 0.2195772 -0.032)
(0.1252066 0.2204213 -0.032)
(0.1237033 0.2212685 -0.032)
(0.1222874 0.2220542 -0.032)
(0.1209131 0.2228055 -0.032)
(0.1195342 0.2235483 -0.032)
(0.1180333 0.2243444 -0.032)
(0.1165035 0.2251426 -0.032)
(0.1149683 0.2259304 -0.032)
(0.1134278 0.2267077 -0.032)
(0.1120249 0.2274042 -0.032)
(0.11057 0.2281151 -0.032)
(0.111882 0.2274745 -0.016)
(0.127462 0.2191248 -0.016)
(0.1246522 0.2207353 -0.016)
(0.1220548 0.2221821 -0.016)
(0.1194171 0.2236108 -0.016)
(0.1168806 0.2249471 -0.016)
(0.1144001 0.2262186 -0.016)
(0.1266348 0.2066493 -0.016)
(0.1251384 0.2042073 -0.016)
(0.1286329 0.2099098 -0.016)
(0.1308316 0.2134977 -0.016)
(0.1256262 0.2050033 -0.032)
(0.1281287 0.209087 -0.032)
(0.1301452 0.2123777 -0.032)
(0.1315058 0.214598 -0.032)
(0.155432 0.1795749 -0.016)
(0.1711941 0.1646172 -0.016)
(0.1701044 0.165743 -0.016)
(0.1688848 0.1669855 -0.016)
(0.1677443 0.1681312 -0.016)
(0.1664719 0.1693912 -0.016)
(0.1653507 0.1704857 -0.016)
(0.1640786 0.1717104 -0.016)
(0.1628517 0.1728745 -0.016)
(0.1616165 0.1740297 -0.016)
(0.1603182 0.1752265 -0.016)
(0.1590479 0.1763804 -0.016)
(0.1578064 0.1774919 -0.016)
(0.156632 0.1785292 -0.016)
(0.1633768 0.1912896 -0.032)
(0.1614742 0.189062 -0.032)
(0.158565 0.1856558 -0.032)
(0.1558571 0.1824853 -0.032)
(0.1626919 0.1904878 -0.016)
(0.1572366 0.1841004 -0.016)
(0.159533 0.1867892 -0.016)
(0.1554077 0.1819591 -0.016)
(0.1817492 0.1767187 -0.016)
(0.1826904 0.1757455 -0.032)
(0.1815455 0.1769279 -0.032)
(0.180337 0.1781595 -0.032)
(0.1791201 0.1793829 -0.032)
(0.1779328 0.1805607 -0.032)
(0.1767187 0.1817492 -0.032)
(0.1755349 0.1828927 -0.032)
(0.1743245 0.1840468 -0.032)
(0.1731453 0.1851566 -0.032)
(0.1719005 0.1863129 -0.032)
(0.1707068 0.1874071 -0.032)
(0.1695259 0.188476 -0.032)
(0.168259 0.1896079 -0.032)
(0.1670843 0.1906439 -0.032)
(0.1658831 0.1916899 -0.032)
(0.1668845 0.1908188 -0.016)
(0.1797015 0.1788005 -0.016)
(0.1775163 0.1809702 -0.016)
(0.1754008 0.1830213 -0.016)
(0.1733003 0.1850115 -0.016)
(0.1710206 0.1871208 -0.016)
(0.1689132 0.1890253 -0.016)
(0.1734834 0.1646296 -0.016)
(0.1775455 0.1684844 -0.016)
(0.1752592 0.1663147 -0.016)
(0.181213 0.1719647 -0.016)
(0.1737859 0.1649167 -0.032)
(0.1754274 0.1664744 -0.032)
(0.1779347 0.1688537 -0.032)
(0.1805994 0.1713824 -0.032)
(0.1825332 0.1732175 -0.032)
(0.2071915 0.1423988 -0.032)
(0.2045345 0.1405727 -0.032)
(0.2007407 0.1379652 -0.032)
(0.197841 0.1359723 -0.032)
(0.2055536 0.141273 -0.016)
(0.1982221 0.1362343 -0.016)
(0.2011099 0.138219 -0.016)
(0.2274862 0.1118582 -0.016)
(0.2281499 0.1104984 -0.032)
(0.2274335 0.1119654 -0.032)
(0.2267077 0.1134278 -0.032)
(0.2259725 0.1148855 -0.032)
(0.2252097 0.1163738 -0.032)
(0.2244555 0.1178218 -0.032)
(0.2236546 0.1193352 -0.032)
(0.2228434 0.1208431 -0.032)
(0.2220221 0.1223455 -0.032)
(0.221249 0.1237381 -0.032)
(0.2205262 0.1250219 -0.032)
(0.2196965 0.126474 -0.032)
(0.2188373 0.127955 -0.032)
(0.2179884 0.129396 -0.032)
(0.2171094 0.1308654 -0.032)
(0.2162205 0.1323289 -0.032)
(0.2152798 0.1338539 -0.032)
(0.2143708 0.135305 -0.032)
(0.2135378 0.1366157 -0.032)
(0.2126319 0.1380215 -0.032)
(0.2116948 0.1394545 -0.032)
(0.2107702 0.1408481 -0.032)
(0.2098364 0.1422355 -0.032)
(0.2105708 0.1411459 -0.016)
(0.2261527 0.1145304 -0.016)
(0.2247141 0.1173279 -0.016)
(0.2232597 0.1200723 -0.016)
(0.2218104 0.1227289 -0.016)
(0.2202507 0.1255065 -0.016)
(0.218636 0.1282986 -0.016)
(0.217171 0.1307631 -0.016)
(0.2155107 0.1334818 -0.016)
(0.2138591 0.1361122 -0.016)
(0.2121319 0.1387888 -0.016)
(0.2159526 0.1030041 -0.016)
(0.218191 0.1040718 -0.016)
(0.2213681 0.1055872 -0.016)
(0.2258449 0.1077225 -0.016)
(0.2164941 0.1032624 -0.032)
(0.2191382 0.1045236 -0.032)
(0.2227337 0.1062385 -0.032)
(0.2253778 0.1074997 -0.032)
(0.2273924 0.1084606 -0.032)
(0.2136522 0.1037255 -0.016)
(0.2129137 0.1052331 -0.016)
(0.2121981 0.1066688 -0.016)
(0.2115067 0.1080332 -0.016)
(0.2107378 0.1095256 -0.016)
(0.2099409 0.1110454 -0.016)
(0.2091153 0.1125923 -0.016)
(0.2082784 0.1141331 -0.016)
(0.2074483 0.115635 -0.016)
(0.2064784 0.117358 -0.016)
(0.2056064 0.1188792 -0.016)
(0.2047609 0.1203296 -0.016)
(0.2039053 0.1217739 -0.016)